@<TRIPOS>MOLECULE
lig.pdb
 18 18 0 0 0
SMALL
GASTEIGER
Energy = 0

@<TRIPOS>ATOM
      1  C1        -1.8860   14.2950   16.6500 C.ar    1  LIG1        0.0608
      2  C2        -2.1220   15.6580   16.7870 C.ar    1  LIG1       -0.0470
      3  C3        -1.7910   16.3270   17.9440 C.ar    1  LIG1       -0.0610
      4  C4        -1.1940   15.6650   18.9870 C.ar    1  LIG1       -0.0617
      5  C5        -0.9620   14.3180   18.8830 C.ar    1  LIG1       -0.0610
      6  C6        -1.3140   13.6380   17.7390 C.ar    1  LIG1       -0.0470
      7  C7        -2.2130   13.5770   15.4110 C.cat   1  LIG1        0.2662
      8  N1        -2.7970   14.1190   14.3920 N.2     1  LIG1       -0.2884
      9  N2        -1.9240   12.3260   15.2410 N.pl3   1  LIG1       -0.2497
     10  H1        -2.5940   16.2360   15.9990 H       1  LIG1        0.0626
     11  H2        -2.0160   17.3850   18.0360 H       1  LIG1        0.0618
     12  H3        -0.9330   16.1980   19.8970 H       1  LIG1        0.0618
     13  H4        -0.5300   13.7870   19.7220 H       1  LIG1        0.0618
     14  H5        -1.1630   12.5650   17.7370 H       1  LIG1        0.0626
     15  H6        -3.2140   15.0490   14.4450 H       1  LIG1        0.3009
     16  H7        -3.1590   13.4400   13.6990 H       1  LIG1        0.3009
     17  H8        -2.3350   11.8320   14.4330 H       1  LIG1        0.2883
     18  H9        -1.6710   11.7450   16.0300 H       1  LIG1        0.2883
@<TRIPOS>BOND
     1    16     8    1
     2     8    15    1
     3     8     7    2
     4    17     9    1
     5     9     7    1
     6     9    18    1
     7     7     1    1
     8    10     2    1
     9     1     2   ar
    10     1     6   ar
    11     2     3   ar
    12    14     6    1
    13     6     5   ar
    14     3    11    1
    15     3     4   ar
    16     5     4   ar
    17     5    13    1
    18     4    12    1
